CM Model generated from Antenna Models - Bent Yagi Layout - 20m.dxf
CE 
GW     1    31  -9.18682E-01 -4.51961E+00  0.00000E+00 -3.72340E+00  0.00000E+00  0.00000E+00  2.00000E-03
GW     2    31  -3.72340E+00  0.00000E+00  0.00000E+00 -9.18682E-01  4.51961E+00  0.00000E+00  2.00000E-03
GW     3    31   1.31134E+00 -3.88686E+00  0.00000E+00  3.72340E+00  0.00000E+00  0.00000E+00  2.00000E-03
GW     4    31   3.72340E+00  0.00000E+00  0.00000E+00  1.31134E+00  3.88686E+00  0.00000E+00  2.00000E-03
GW     5    31   3.92660E-01 -4.52360E+00  0.00000E+00  1.59574E+00  0.00000E+00  0.00000E+00  2.00000E-03
GW     6    31   1.59574E+00  0.00000E+00  0.00000E+00  3.92660E-01  4.52360E+00  0.00000E+00  2.00000E-03
GM     0     0   0.00000E+00  0.00000E+00  0.00000E+00  0.00000E+00  0.00000E+00  1.00000E+01  0.00000E+00
GE     0     0   0.00000E+00  0.00000E+00  0.00000E+00  0.00000E+00  0.00000E+00  0.00000E+00  0.00000E+00
GN     2     0     0      0  1.30000E+01  5.00000E-03  0.00000E+00  0.00000E+00  0.00000E+00  0.00000E+00
EX     0     6     1     0  1.00000E+00  0.00000E+00  0.00000E+00  0.00000E+00  0.00000E+00  0.00000E+00
FR     0    10     0     0  1.40000E+01  2.22222E-01  1.60000E+01  0.00000E+00  0.00000E+00  0.00000E+00
RP     0    90   361   1000  0.00000E+00  0.00000E+00  1.00000E+00  1.00000E+00  0.00000E+00  0.00000E+00
EN     0     0     0      0  0.00000E+00  0.00000E+00  0.00000E+00  0.00000E+00  0.00000E+00  0.00000E+00
